Version 4
SHEET 1 1120 968
WIRE -448 -256 -1024 -256
WIRE -160 -256 -448 -256
WIRE -448 -224 -448 -256
WIRE -704 -144 -768 -144
WIRE -768 -112 -768 -144
WIRE -448 -112 -448 -144
WIRE -192 -112 -448 -112
WIRE -448 -80 -448 -112
WIRE -768 0 -768 -32
WIRE -768 0 -832 0
WIRE 320 16 64 16
WIRE -832 32 -832 0
WIRE -768 32 -768 0
WIRE -448 32 -448 0
WIRE -224 32 -448 32
WIRE 320 48 96 48
WIRE -448 64 -448 32
WIRE 320 80 128 80
WIRE 64 112 64 16
WIRE 96 112 96 48
WIRE 128 112 128 80
WIRE 256 128 256 -16
WIRE 512 128 256 128
WIRE -768 144 -768 112
WIRE -704 144 -768 144
WIRE -160 144 -160 -256
WIRE -32 144 -160 144
WIRE 256 144 256 128
WIRE 256 144 224 144
WIRE 512 160 512 128
WIRE -448 176 -448 144
WIRE -256 176 -448 176
WIRE -192 176 -192 -112
WIRE -32 176 -192 176
WIRE -448 208 -448 176
WIRE -224 208 -224 32
WIRE -32 208 -224 208
WIRE -256 240 -256 176
WIRE -32 240 -256 240
WIRE 512 256 512 224
WIRE 512 256 224 256
WIRE 576 256 512 256
WIRE -32 272 -256 272
WIRE -1024 288 -1024 -256
WIRE 512 288 512 256
WIRE 576 288 576 256
WIRE -32 304 -224 304
WIRE -448 320 -448 288
WIRE -256 320 -256 272
WIRE -256 320 -448 320
WIRE -32 336 -192 336
WIRE 320 336 224 336
WIRE -448 352 -448 320
WIRE -32 368 -160 368
WIRE 256 368 224 368
WIRE 256 384 256 368
WIRE 512 384 512 352
WIRE 512 384 256 384
WIRE 704 416 640 416
WIRE 832 416 784 416
WIRE -448 464 -448 432
WIRE -224 464 -224 304
WIRE -224 464 -448 464
WIRE 96 464 96 400
WIRE 320 464 320 336
WIRE 320 464 96 464
WIRE -448 496 -448 464
WIRE 256 528 256 384
WIRE 320 528 320 464
WIRE 704 576 704 544
WIRE 640 592 640 416
WIRE 672 592 640 592
WIRE -448 608 -448 576
WIRE -192 608 -192 336
WIRE -192 608 -448 608
WIRE 832 608 832 416
WIRE 832 608 736 608
WIRE 896 608 832 608
WIRE 1056 608 960 608
WIRE 576 624 576 352
WIRE 672 624 576 624
WIRE -448 640 -448 608
WIRE 1056 640 1056 608
WIRE 640 672 640 592
WIRE 704 672 704 640
WIRE 1056 736 1056 704
WIRE -448 752 -448 720
WIRE -160 752 -160 368
WIRE -160 752 -448 752
WIRE -448 784 -448 752
WIRE 640 784 640 752
WIRE -1024 896 -1024 368
WIRE -448 896 -448 864
WIRE -448 896 -1024 896
WIRE -448 928 -448 896
FLAG -448 928 0
FLAG -832 32 0
FLAG -704 -144 +5V
IOPIN -704 -144 BiDir
FLAG -704 144 -5V
IOPIN -704 144 BiDir
FLAG 256 -16 +5V
IOPIN 256 -16 BiDir
FLAG 256 528 -5V
IOPIN 256 528 BiDir
FLAG 320 80 A0
IOPIN 320 80 BiDir
FLAG 320 48 A1
IOPIN 320 48 BiDir
FLAG 320 16 A2
IOPIN 320 16 BiDir
FLAG 320 528 0
FLAG 704 544 +5V
IOPIN 704 544 BiDir
FLAG 704 672 -5V
IOPIN 704 672 BiDir
FLAG 640 784 0
FLAG 1056 736 0
SYMBOL res -464 -240 R0
SYMATTR InstName R1
SYMATTR Value 40021
SYMBOL res -464 -96 R0
SYMATTR InstName R2
SYMATTR Value 29987
SYMBOL res -464 48 R0
SYMATTR InstName R3
SYMATTR Value 14995
SYMBOL res -464 192 R0
SYMATTR InstName R4
SYMATTR Value 7498
SYMBOL res -464 336 R0
SYMATTR InstName R5
SYMATTR Value 3749
SYMBOL res -464 480 R0
SYMATTR InstName R6
SYMATTR Value 1875
SYMBOL res -464 624 R0
SYMATTR InstName R7
SYMATTR Value 937
SYMBOL res -464 768 R0
SYMATTR InstName R8
SYMATTR Value 938
SYMBOL voltage -1024 272 R0
WINDOW 123 0 0 Left 2
WINDOW 39 0 0 Left 2
SYMATTR InstName V1
SYMATTR Value PWL file=D:\Users\enforcer\Desktop\Step.txt
SYMBOL Misc\\ADG658_LEFT 96 256 R0
SYMATTR InstName U1
SYMATTR SpiceModel ""
SYMBOL voltage -768 -128 R0
WINDOW 123 0 0 Left 2
WINDOW 39 0 0 Left 2
SYMATTR InstName V2
SYMATTR Value 5
SYMBOL voltage -768 16 R0
WINDOW 123 0 0 Left 2
WINDOW 39 0 0 Left 2
SYMATTR InstName V3
SYMATTR Value 5
SYMBOL schottky 528 224 R180
WINDOW 0 24 64 Left 2
WINDOW 3 24 0 Left 2
SYMATTR InstName D1
SYMATTR Value NSR20F30NXT5G
SYMATTR Description Diode
SYMATTR Type diode
SYMBOL schottky 528 352 R180
WINDOW 0 24 64 Left 2
WINDOW 3 24 0 Left 2
SYMATTR InstName D2
SYMATTR Value NSR20F30NXT5G
SYMATTR Description Diode
SYMATTR Type diode
SYMBOL Opamps\\opamp2 704 544 R0
SYMATTR InstName U2
SYMATTR Value THS4271
SYMBOL res 688 432 R270
WINDOW 0 32 56 VTop 2
WINDOW 3 0 56 VBottom 2
SYMATTR InstName R9
SYMATTR Value 40k
SYMBOL res 656 768 R180
WINDOW 0 36 76 Left 2
WINDOW 3 36 40 Left 2
SYMATTR InstName R10
SYMATTR Value 100k
SYMBOL schottky 560 288 R0
SYMATTR InstName D3
SYMATTR Value NSR20F30NXT5G
SYMATTR Description Diode
SYMATTR Type diode
SYMBOL schottky 896 624 R270
WINDOW 0 32 32 VTop 2
WINDOW 3 0 32 VBottom 2
SYMATTR InstName D4
SYMATTR Value NSR20F30NXT5G
SYMATTR Description Diode
SYMATTR Type diode
SYMBOL cap 1040 640 R0
SYMATTR InstName C1
SYMATTR Value 10n
TEXT -1058 952 Left 2 !.tran 0 354u 0 10n
TEXT -1024 -288 Left 2 !.include "C:\\Program Files (x86)\\LTC\\LTspiceIV\\lib\\THS4271.cir"
TEXT -1024 -320 Left 2 !.include "C:\\Program Files (x86)\\LTC\\LTspiceIV\\lib\\adg658.cir"
