* Connections:	 Input 1
*		 |  Input 2
*		 |  |  Output 
*		 |  |  |  Ground
*		 |  |  |  |  Supply
*		 |  |  |  |  |
.subckt NOR2	 1  2  4  8  7

Sw1	 7  3  1  8 Smodp
Sw2	 3  4  2  8 Smodp
Sw3	 4  8  1  8 Smodn
Sw4	 4  8  2  8 Smodn

.model	Smodp VSWITCH(Ron=1m Roff=1G Von=.5 Voff=4.5)
.model	Smodn VSWITCH(Ron=1m Roff=1G Von=4.5 Voff=.5)

.ends

* Connections:	 Input 1
*		 |  Input 2
*		 |  |  Output
*		 |  |  |  Ground
*		 |  |  |  |  Supply
*		 |  |  |  |  |
.subckt OR2	 1  2  5  8  7

Sw1	 7  3  1  8 Smodp
Sw2	 3  4  2  8 Smodp
Sw3	 4  8  1  8 Smodn
Sw4	 4  8  2  8 Smodn
Sw5	 7  5  4  8 Smodp
Sw6	 5  8  4  8 Smodn

.model	Smodp VSWITCH(Ron=1m Roff=1G Von=.5 Voff=4.5)
.model	Smodn VSWITCH(Ron=1m Roff=1G Von=4.5 Voff=.5)

.ends

* Connections:	 Input 1
*		 |  Input 2
*		 |  |  Output
*		 |  |  |  Ground
*		 |  |  |  |  Supply
*		 |  |  |  |  |
.subckt NAND2	 1  2  4  8  7

Sw1	 7  4  1  8 Smodp
Sw2	 7  4  2  8 Smodp
Sw3	 4  3  1  8 Smodn
Sw4	 3  8  2  8 Smodn

.model	Smodp VSWITCH(Ron=1m Roff=1G Von=.5 Voff=4.5)
.model	Smodn VSWITCH(Ron=1m Roff=1G Von=4.5 Voff=.5)

.ends

* Connections:	 Input 1
*		 |  Input 2
*		 |  |  Output
*		 |  |  |  Ground
*		 |  |  |  |  Supply
*		 |  |  |  |  |
.subckt	AND2	 1  2  5  8  7

Sw1	 7  4  1  8 Smodp
Sw2	 7  4  2  8 Smodp
Sw3	 4  3  1  8 Smodn
Sw4	 3  8  2  8 Smodn
Sw5	 7  5  4  8 Smodp
Sw6	 5  8  4  8 Smodn

.model	Smodp VSWITCH(Ron=1m Roff=1G Von=.5 Voff=4.5)
.model	Smodn VSWITCH(Ron=1m Roff=1G Von=4.5 Voff=.5)

.ends

* Connections:	 Input 1
*		 |  Input 2
*		 |  |  Input 3		               
*		 |  |  |  Output
*		 |  |  |  |  Ground
*		 |  |  |  |  |  Supply
*		 |  |  |  |  |  |
.subckt NOR3	 1  2  3  9  8  7

Sw1	 7  5  1  8 Smodp
Sw2	 5  6  2  8 Smodp
Sw3	 6  9  3  8 Smodp
Sw4	 9  8  1  8 Smodn
Sw5	 9  8  2  8 Smodn
Sw6	 9  8  3  8 Smodn

.model	Smodp VSWITCH(Ron=1m Roff=1G Von=.5 Voff=4.5)
.model	Smodn VSWITCH(Ron=1m Roff=1G Von=4.5 Voff=.5)

.ends

* Connections:	 Input 1
*		 |  Input 2
*		 |  |  Input 3		               
*		 |  |  |  Output
*		 |  |  |  |  Ground
*		 |  |  |  |  |  Supply
*		 |  |  |  |  |  |
.subckt OR3	 1  2  3 10  8  7

Sw1	 7  5  1  8 Smodp
Sw2	 5  6  2  8 Smodp
Sw3	 6  9  3  8 Smodp
Sw4	 9  8  1  8 Smodn
Sw5	 9  8  2  8 Smodn
Sw6	 9  8  3  8 Smodn
Sw7	 7 10  9  8 Smodp
Sw8	10  8  9  8 Smodn

.model	Smodp VSWITCH(Ron=1m Roff=1G Von=.5 Voff=4.5)
.model	Smodn VSWITCH(Ron=1m Roff=1G Von=4.5 Voff=.5)

.ends