* DRB886G D model
* Date: 2008/12/24
.MODEL DRB886G D
+ IS=1.6577E-6
+ N=1.3060
+ RS=71.547
+ IKF=7.2109
+ XTI=2
+ EG=.42
+ CJO=788.48E-15
+ M=.30823
+ VJ=.51668
+ ISR=6.2805E-6
+ NR=2.6000
+ BV=5
+ TT=16.000E-9
+ TRS1=0.006