Version 4
SHEET 1 3512 1908
WIRE 2352 784 1344 784
WIRE 1344 832 1344 784
WIRE 1920 832 1344 832
WIRE 2192 832 2144 832
WIRE 2240 832 2192 832
WIRE 2320 832 2304 832
WIRE 1344 848 1344 832
WIRE 2192 848 2192 832
WIRE 1840 928 1824 928
WIRE 1920 928 1904 928
WIRE 2192 928 2192 912
WIRE 2192 928 2144 928
WIRE 1344 944 1344 928
WIRE 2352 944 2352 784
WIRE 1744 1024 1712 1024
WIRE 1920 1024 1808 1024
WIRE 2304 1024 2144 1024
WIRE 2192 1040 2192 928
WIRE 1920 1120 1856 1120
WIRE 2192 1120 2192 1104
WIRE 2192 1120 2144 1120
WIRE 2352 1120 2352 1040
WIRE 2352 1120 2192 1120
WIRE 2528 1120 2352 1120
WIRE 2544 1120 2528 1120
WIRE 2640 1120 2624 1120
WIRE 2688 1120 2640 1120
WIRE 2784 1120 2688 1120
WIRE 2352 1136 2352 1120
WIRE 2688 1136 2688 1120
WIRE 2784 1136 2784 1120
WIRE 1760 1184 1760 1168
WIRE 1920 1216 1888 1216
WIRE 2304 1216 2144 1216
WIRE 2688 1232 2688 1200
WIRE 2784 1232 2784 1216
WIRE 2352 1248 2352 1232
WIRE 1760 1296 1760 1264
WIRE 1856 1296 1856 1120
WIRE 1856 1296 1760 1296
WIRE 1920 1312 1904 1312
WIRE 2176 1312 2144 1312
WIRE 1760 1328 1760 1296
WIRE 1904 1376 1904 1312
WIRE 2272 1376 1904 1376
WIRE 2384 1376 2272 1376
WIRE 2528 1376 2528 1120
WIRE 2528 1376 2464 1376
WIRE 2272 1392 2272 1376
WIRE 1760 1472 1760 1408
WIRE 1888 1472 1888 1216
WIRE 1888 1472 1760 1472
WIRE 2272 1472 2272 1456
WIRE 2272 1472 1888 1472
WIRE 2640 1472 2640 1120
WIRE 2640 1472 2272 1472
WIRE 1504 1536 1408 1536
WIRE 1648 1536 1584 1536
WIRE 1696 1536 1648 1536
WIRE 1952 1536 1840 1536
WIRE 2112 1536 2032 1536
WIRE 2160 1536 2112 1536
WIRE 2464 1536 2304 1536
WIRE 2672 1536 2544 1536
WIRE 2720 1536 2672 1536
WIRE 1408 1552 1408 1536
WIRE 1648 1552 1648 1536
WIRE 1840 1552 1840 1536
WIRE 2112 1552 2112 1536
WIRE 2304 1552 2304 1536
WIRE 2672 1552 2672 1536
WIRE 2672 1632 2672 1616
WIRE 1408 1648 1408 1632
WIRE 1648 1648 1648 1616
WIRE 1840 1648 1840 1632
WIRE 2112 1648 2112 1616
WIRE 2304 1648 2304 1632
FLAG 1408 1648 0
FLAG 1648 1648 0
FLAG 1696 1536 PIN
FLAG 1840 1648 0
FLAG 2112 1648 0
FLAG 2160 1536 POUT
FLAG 2304 1648 0
FLAG 2672 1632 0
FLAG 2720 1536 Efficiency
FLAG 2176 1312 0
FLAG 2352 1248 0
FLAG 2688 1232 0
FLAG 2784 1232 0
FLAG 1760 1168 0
FLAG 2784 1120 OUT
FLAG 2320 832 0
FLAG 1824 928 0
FLAG 1344 944 0
FLAG 1344 784 IN
FLAG 1712 1024 0
SYMBOL bv 1408 1536 R0
SYMATTR InstName B1
SYMATTR Value V=-V(in)*i(V1)
SYMBOL res 1488 1552 R270
WINDOW 0 32 56 VTop 2
WINDOW 3 0 56 VBottom 2
SYMATTR InstName R5
SYMATTR Value 1k
SYMBOL cap 1632 1552 R0
SYMATTR InstName C5
SYMATTR Value 44n
SYMBOL bv 1840 1536 R0
SYMATTR InstName B2
SYMATTR Value V=V(out)*I(Rload)
SYMBOL res 1936 1552 R270
WINDOW 0 32 56 VTop 2
WINDOW 3 0 56 VBottom 2
SYMATTR InstName R6
SYMATTR Value 1k
SYMBOL cap 2096 1552 R0
SYMATTR InstName C6
SYMATTR Value 44n
SYMBOL bv 2304 1536 R0
SYMATTR InstName B3
SYMATTR Value V=limit(V(pout)/V(pin),0,1)
SYMBOL res 2448 1552 R270
WINDOW 0 32 56 VTop 2
WINDOW 3 0 56 VBottom 2
SYMATTR InstName R7
SYMATTR Value 1k
SYMBOL cap 2656 1552 R0
SYMATTR InstName C7
SYMATTR Value 44n
SYMBOL nmos 2304 944 R0
SYMATTR InstName Q1
SYMATTR Value RJK0305DPB
SYMBOL ind 2528 1136 R270
WINDOW 0 32 56 VTop 2
WINDOW 3 5 56 VBottom 2
SYMATTR InstName L1
SYMATTR Value 6µ
SYMATTR SpiceLine Rser=5.8m
SYMBOL cap 2672 1136 R0
SYMATTR SpiceLine Rser=4.5m
SYMATTR InstName C1
SYMATTR Value 660µ
SYMBOL res 1744 1424 M180
WINDOW 0 36 76 Left 2
WINDOW 3 36 40 Left 2
SYMATTR InstName R1
SYMATTR Value 42.2K
SYMBOL res 1744 1280 M180
WINDOW 0 36 76 Left 2
WINDOW 3 36 40 Left 2
SYMATTR InstName R2
SYMATTR Value 8.06K
SYMBOL cap 2240 848 R270
WINDOW 0 32 32 VTop 2
WINDOW 3 0 32 VBottom 2
SYMATTR InstName C2
SYMATTR Value 4.7µ
SYMBOL cap 1904 912 R90
WINDOW 0 0 32 VBottom 2
WINDOW 3 32 32 VTop 2
SYMATTR InstName C3
SYMATTR Value .002µ
SYMBOL voltage 1344 832 R0
WINDOW 123 24 138 Left 2
WINDOW 39 24 117 Left 2
SYMATTR Value PWL(0 0 +1u 26 +3.5m 26 +2m 10)
SYMATTR InstName V1
SYMBOL schottky 2176 848 R0
WINDOW 3 22 63 Left 2
SYMATTR Value CMDSH2-3
SYMATTR InstName D1
SYMATTR Description Diode
SYMATTR Type diode
SYMBOL nmos 2304 1136 R0
SYMATTR InstName Q2
SYMATTR Value RJK0301DPB
SYMBOL res 2480 1360 R90
WINDOW 0 0 56 VBottom 2
WINDOW 3 32 56 VTop 2
SYMATTR InstName R3
SYMATTR Value 10.2K
SYMBOL cap 2256 1392 R0
WINDOW 3 29 57 Left 2
WINDOW 39 24 85 Left 2
SYMATTR Value .1µ
SYMATTR InstName C4
SYMBOL cap 1808 1008 R90
WINDOW 0 0 32 VBottom 2
WINDOW 3 32 32 VTop 2
WINDOW 39 53 32 VTop 2
SYMATTR InstName C8
SYMATTR Value 2200p
SYMATTR SpiceLine Rser=15K Cpar=100p
SYMBOL PowerProducts\\LTC3854 2032 1072 R0
SYMATTR InstName U1
SYMBOL cap 2176 1040 R0
SYMATTR InstName C9
SYMATTR Value .1µ
SYMBOL res 2768 1120 R0
SYMATTR InstName Rload
SYMATTR Value 1
TEXT 2688 1456 Left 2 !.tran 5.6m startup
